/*--------------------------------*- C++ -*----------------------------------*\
| =========                 |                                                 |
| \\      /  F ield         | OpenFOAM: The Open Source CFD Toolbox           |
|  \\    /   O peration     | Version:  2.4.0                                 |
|   \\  /    A nd           | Web:      www.OpenFOAM.org                      |
|    \\/     M anipulation  |                                                 |
\*---------------------------------------------------------------------------*/
FoamFile
{
    version     2.0;
    format      binary;
    class       polyBoundaryMesh;
    location    "1/polyMesh";
    object      boundary;
}
// * * * * * * * * * * * * * * * * * * * * * * * * * * * * * * * * * * * * * //

4
(
    defaultFaces
    {
        type            empty;
        inGroups        1(empty);
        nFaces          0;
        startFace       141548;
    }
    outlet
    {
        type            wall;
        inGroups        1(wall);
        nFaces          232;
        startFace       141548;
    }
    suplat
    {
        type            wall;
        inGroups        1(wall);
        nFaces          19200;
        startFace       141780;
    }
    inlet
    {
        type            wall;
        inGroups        1(wall);
        nFaces          232;
        startFace       160980;
    }
)

// ************************************************************************* //
