/*--------------------------------*- C++ -*----------------------------------*\
| =========                 |                                                 |
| \\      /  F ield         | OpenFOAM: The Open Source CFD Toolbox           |
|  \\    /   O peration     | Version:  v1912                                 |
|   \\  /    A nd           | Website:  www.openfoam.com                      |
|    \\/     M anipulation  |                                                 |
\*---------------------------------------------------------------------------*/
FoamFile
{
    version     2.0;
    format      ascii;
    class       extendedFeatureEdgeMesh;
    location    "constant/extendedFeatureEdgeMesh";
    object      circularPipe.extendedFeatureEdgeMesh;
}
// * * * * * * * * * * * * * * * * * * * * * * * * * * * * * * * * * * * * * //

// points

32
(
(0 -0.4619287 -0.1913549)
(0 -0.5 6.123234e-17)
(0 0.5 -6.123234e-17)
(0 0.4619287 -0.1913549)
(0 -0.4619287 0.1913549)
(3 -0.5 6.123234e-17)
(3 -0.4619287 0.1913549)
(0 -0.3535696 -0.3535325)
(0 0.3535696 -0.3535325)
(3 -0.4619287 -0.1913549)
(0 -0.1913201 -0.4619475)
(0 0.1913201 -0.4619475)
(3 -0.3535696 -0.3535325)
(0 -3.295975e-17 -0.4999941)
(3 -0.1913201 -0.4619475)
(3 -3.295975e-17 -0.4999941)
(3 0.1913201 -0.4619475)
(3 0.3535696 -0.3535325)
(3 0.4619287 -0.1913549)
(0 0.4619287 0.1913549)
(3 0.5 -6.123234e-17)
(0 0.3535696 0.3535325)
(0 -0.3535696 0.3535325)
(3 0.4619287 0.1913549)
(0 0.1913201 0.4619475)
(0 -0.1913201 0.4619475)
(3 0.3535696 0.3535325)
(0 9.020562e-17 0.4999941)
(3 0.1913201 0.4619475)
(3 9.020562e-17 0.4999941)
(3 -0.1913201 0.4619475)
(3 -0.3535696 0.3535325)
)

// edges

32
(
(0 1)
(2 3)
(1 4)
(5 6)
(7 0)
(3 8)
(9 5)
(10 7)
(8 11)
(12 9)
(13 10)
(11 13)
(14 12)
(15 14)
(16 15)
(17 16)
(18 17)
(19 2)
(20 18)
(21 19)
(4 22)
(23 20)
(24 21)
(22 25)
(26 23)
(27 24)
(25 27)
(28 26)
(29 28)
(30 29)
(31 30)
(6 31)
)

// concaveStart mixedStart nonFeatureStart
0 0 0
// internalStart flatStart openStart multipleStart
32 32 32 32
// normals

60
(
(-1 0 0)
(-0 -0.980777 -0.195132)
(-1 -0 0)
(0 0.980777 -0.195132)
(-1 0 -0)
(0 -0.980777 0.195132)
(0 -0.980777 0.195132)
(1 0 0)
(-1 0 0)
(-0 -0.8314803 -0.5555543)
(-1 -0 0)
(0 0.8314803 -0.5555543)
(-0 -0.980777 -0.195132)
(1 0 -0)
(-1 0 0)
(-0 -0.5555822 -0.8314616)
(-1 -0 0)
(0 0.5555822 -0.8314616)
(0 -0.8314803 -0.5555543)
(1 -0 0)
(-1 -0 0)
(-0 -0.1950443 -0.9807944)
(0 0.1950443 -0.9807944)
(0 -0.5555822 -0.8314616)
(1 -0 0)
(0 -0.1950443 -0.9807944)
(1 -0 0)
(0 0.1950443 -0.9807944)
(0 0.5555822 -0.8314616)
(1 0 0)
(0 0.8314803 -0.5555543)
(1 0 0)
(-1 0 0)
(0 0.980777 0.195132)
(0 0.980777 -0.195132)
(1 0 0)
(-1 0 0)
(0 0.8314803 0.5555543)
(-1 0 0)
(0 -0.8314803 0.5555543)
(0 0.980777 0.195132)
(1 0 0)
(-1 0 0)
(0 0.5555822 0.8314616)
(-1 0 0)
(0 -0.5555822 0.8314616)
(0 0.8314803 0.5555543)
(1 0 0)
(-1 0 0)
(0 0.1950443 0.9807944)
(0 -0.1950443 0.9807944)
(0 0.5555822 0.8314616)
(1 0 0)
(0 0.1950443 0.9807944)
(1 0 0)
(0 -0.1950443 0.9807944)
(0 -0.5555822 0.8314616)
(1 0 0)
(0 -0.8314803 0.5555543)
(1 0 0)
)

// normal volume types

60
(
0
0
0
0
0
0
0
0
0
0
0
0
0
0
0
0
0
0
0
0
0
0
0
0
0
0
0
0
0
0
0
0
0
0
0
0
0
0
0
0
0
0
0
0
0
0
0
0
0
0
0
0
0
0
0
0
0
0
0
0
)

// normalDirections

32
(
2(1 -1)
2(1 -1)
2(1 -1)
2(1 -1)
2(1 -1)
2(1 -1)
2(1 -1)
2(1 -1)
2(1 -1)
2(1 -1)
2(1 -1)
2(1 -1)
2(1 -1)
2(1 -1)
2(1 -1)
2(1 -1)
2(1 -1)
2(1 -1)
2(1 -1)
2(1 -1)
2(1 -1)
2(1 -1)
2(1 -1)
2(1 -1)
2(1 -1)
2(1 -1)
2(1 -1)
2(1 -1)
2(1 -1)
2(1 -1)
2(1 -1)
2(1 -1)
)

// edgeNormals

32
(
2(0 1)
2(2 3)
2(4 5)
2(6 7)
2(8 9)
2(10 11)
2(12 13)
2(14 15)
2(16 17)
2(18 19)
2(20 21)
2(20 22)
2(23 24)
2(25 26)
2(27 26)
2(28 29)
2(30 31)
2(32 33)
2(34 35)
2(36 37)
2(38 39)
2(40 41)
2(42 43)
2(44 45)
2(46 47)
2(48 49)
2(48 50)
2(51 52)
2(53 54)
2(55 54)
2(56 57)
2(58 59)
)

// featurePointNormals
0()
// featurePointEdges
0()
// regionEdges
0()


// ************************************************************************* //
