/*--------------------------------*- C++ -*----------------------------------*\
| =========                 |                                                 |
| \\      /  F ield         | OpenFOAM: The Open Source CFD Toolbox           |
|  \\    /   O peration     | Version:  v1912                                 |
|   \\  /    A nd           | Website:  www.openfoam.com                      |
|    \\/     M anipulation  |                                                 |
\*---------------------------------------------------------------------------*/
FoamFile
{
    version     2.0;
    format      ascii;
    class       dictionary;
    object      blockMeshDict;
}

// * * * * * * * * * * * * * * * * * * * * * * * * * * * * * * * * * * * * * //

scale   1;

a 49;
b 13;
c 13;
yi -6;
yf 6;
zi -6;
zf  6;
xi -24;
xf 24;

vertices
(
    ($xi $yi $zi) //0
    ($xf $yi $zi) //1
    ($xf $yf $zi) //2
    ($xi $yf $zi) //3
    ($xi $yi $zf) //4
    ($xf $yi $zf) //5
    ($xf $yf $zf) //6
    ($xi $yf $zf) //7
);


blocks
(
    hex (0 1 2 3 4 5 6 7) ($a $b $c) simpleGrading (1 1 1)
);

edges
(
);

boundary
(
    frontAndBack
    {
        type patch;
        faces
        (
            (3 7 6 2)
            (1 5 4 0)
        );
    }
    inlet
    {
        type patch;
        faces
        (
            (0 4 7 3)
        );
    }
    outlet
    {
        type patch;
        faces
        (
            (2 6 5 1)
        );
    }
    lowerWall
    {
        type wall;
        faces
        (
            (0 3 2 1)
        );
    }
    upperWall
    {
        type patch;
        faces
        (
            (4 5 6 7)
        );
    }
);

// ************************************************************************* //
